**
**   Structure: Cantilever beam with rectangular cross section (generated by CGX)
**   Test objective: C3D20 elements, dense mesh, EDGE vertex displacement export
**
*HEADING
Model: beam20p_dense (CGX generated)
*INCLUDE, INPUT=all.msh
*INCLUDE, INPUT=NFIX.nam
*INCLUDE, INPUT=NTIP.nam

*NSET, NSET=EDGE
118, 198, 508, 554

*BOUNDARY
NNFIX, 1, 3

*MATERIAL, NAME=EL
*ELASTIC
210000.0, 0.3
*DENSITY
7.8E-9
*SOLID SECTION, ELSET=Eall, MATERIAL=EL

*STEP
*STATIC
*CLOAD
NNTIP, 2, -100.0
*NODE FILE
U
*EL FILE
S
*NODE PRINT, NSET=EDGE
U
*END STEP
